NOVO24/1726535/Linhas.dss
! ==========================================================
! LINHAS — geradas de SSDMT
! Barras = PAC_1 / PAC_2 da BDGD (preservados)
! ==========================================================
New Line.247586152 Bus1=node_444095736.3 Bus2=node_444095806.3 LineCode=CND_907_1F Length=420.33 Units=m
New Line.245767602 Bus1=node_434637643.2 Bus2=node_434637638.2 LineCode=CND_907_1F Length=39.38 Units=m
New Line.244334830 Bus1=node_427791069.1.2.3 Bus2=node_427791054.1.2.3 LineCode=CND_20_3F Length=38.16 Units=m
New Line.244655895 Bus1=node_429233374.2 Bus2=node_429233375.2 LineCode=CND_902_1F Length=38.43 Units=m
New Line.245619586 Bus1=node_434339724.2 Bus2=node_434339393.2 LineCode=CND_907_1F Length=247.10 Units=m
New Line.244159728 Bus1=node_427108749.2 Bus2=node_427108745.2 LineCode=CND_909_1F Length=46.53 Units=m
New Line.245619578 Bus1=node_434339793.2 Bus2=node_434339748.2 LineCode=CND_907_1F Length=83.21 Units=m
New Line.2287027385 Bus1=node_2518148123.1 Bus2=node_2518148133.1 LineCode=CND_915_1F Length=46.36 Units=m
New Line.2607580067 Bus1=node_2760945918.1.2.3 Bus2=node_2760946056.1.2.3 LineCode=CND_10_3F Length=53.72 Units=m
New Line.244334808 Bus1=node_427790760.1.2.3 Bus2=node_427790854.1.2.3 LineCode=CND_20_3F Length=40.61 Units=m
New Line.246092311 Bus1=node_436695064.1.2.3 Bus2=node_436695073.1.2.3 LineCode=CND_51_3F Length=24.23 Units=m
New Line.247585976 Bus1=node_443982072.3 Bus2=node_444094926.3 LineCode=CND_907_1F Length=51.69 Units=m
New Line.247585824 Bus1=node_2038538037.2 Bus2=node_2038538071.2 LineCode=CND_907_1F Length=26.40 Units=m
New Line.244334789 Bus1=node_427790864.1.2.3 Bus2=node_427790859.1.2.3 LineCode=CND_20_3F Length=42.95 Units=m
New Line.1816604063 Bus1=node_2141731316.1.2.3 Bus2=node_2139919168.1.2.3 LineCode=CND_20_3F Length=34.54 Units=m
New Line.957184197 Bus1=node_1219423175.2 Bus2=node_1219423198.2 LineCode=CND_911_1F Length=28.17 Units=m
New Line.245619159 Bus1=node_434178811.1.2.3 Bus2=node_434178817.1.2.3 LineCode=CND_20_3F Length=18.15 Units=m
New Line.1351274362 Bus1=node_1709458641.1.2.3 Bus2=node_1709458665.1.2.3 LineCode=CND_3_3F Length=63.11 Units=m
New Line.2259327340 Bus1=node_2520386806.1 Bus2=node_2520386824.1 LineCode=CND_911_1F Length=38.67 Units=m
New Line.247585666 Bus1=node_427792253.1.2.3 Bus2=node_443981691.1.2.3 LineCode=CND_19_3F Length=25.12 Units=m
New Line.247587720 Bus1=node_444094836.3 Bus2=node_444292575.3 LineCode=CND_907_1F Length=102.39 Units=m
New Line.245619278 Bus1=node_434338293.1 Bus2=node_434338294.1 LineCode=CND_907_1F Length=120.98 Units=m
New Line.244334813 Bus1=node_427790980.1.2.3 Bus2=node_427790929.1.2.3 LineCode=CND_20_3F Length=39.06 Units=m
New Line.244160180 Bus1=node_427111008.2 Bus2=node_427111012.2 LineCode=CND_909_1F Length=40.03 Units=m
New Line.245770404 Bus1=node_2079343919.1.2.3 Bus2=node_435287242.1.2.3 LineCode=CND_6_3F Length=24.77 Units=m
New Line.244159364 Bus1=node_426952343.1.2.3 Bus2=node_426952344.1.2.3 LineCode=CND_20_3F Length=40.85 Units=m
New Line.2539141907 Bus1=node_2734842052.1.2.3 Bus2=node_2734842062.1.2.3 LineCode=CND_429_3F Length=33.64 Units=m
New Line.1816604726 Bus1=node_2141732413.1.2.3 Bus2=node_2141732420.1.2.3 LineCode=CND_20_3F Length=12.69 Units=m
New Line.244656230 Bus1=node_429235053.3 Bus2=node_429235054.3 LineCode=CND_902_1F Length=34.00 Units=m
New Line.1816604455 Bus1=node_2141731950.1.2.3 Bus2=node_2141731964.1.2.3 LineCode=CND_20_3F Length=39.64 Units=m
New Line.244159853 Bus1=node_427107777.1.2.3 Bus2=node_427109389.1.2.3 LineCode=CND_20_3F Length=11.44 Units=m
New Line.247185639 Bus1=node_441830363.1.2.3 Bus2=node_441968665.1.2.3 LineCode=CND_19_3F Length=33.11 Units=m
New Line.1816604724 Bus1=node_2141732427.1.2.3 Bus2=node_2141732413.1.2.3 LineCode=CND_20_3F Length=32.24 Units=m
New Line.244655881 Bus1=node_429233300.2 Bus2=node_429233305.2 LineCode=CND_902_1F Length=41.47 Units=m
New Line.244159567 Bus1=node_427107950.1.2.3 Bus2=node_427107951.1.2.3 LineCode=CND_20_3F Length=34.61 Units=m
New Line.245619268 Bus1=node_434338243.2 Bus2=node_434338244.2 LineCode=CND_907_1F Length=61.33 Units=m
New Line.247586110 Bus1=node_444095491.1 Bus2=node_444095596.1 LineCode=CND_907_1F Length=141.38 Units=m
New Line.244656237 Bus1=node_429235054.3 Bus2=node_429235083.3 LineCode=CND_902_1F Length=34.71 Units=m
New Line.245619590 Bus1=node_434339393.2 Bus2=node_434339854.2 LineCode=CND_907_1F Length=174.76 Units=m
New Line.2539141431 Bus1=node_2734840868.1.2.3 Bus2=node_2734840878.1.2.3 LineCode=CND_429_3F Length=40.23 Units=m
New Line.244159377 Bus1=node_426952329.1.2.3 Bus2=node_426952413.1.2.3 LineCode=CND_50_3F Length=27.88 Units=m
New Line.244159444 Bus1=node_427107326.1 Bus2=node_427107332.1 LineCode=CND_909_1F Length=33.47 Units=m
New Line.244159515 Bus1=node_427107682.1 Bus2=node_427107606.1 LineCode=CND_909_1F Length=73.37 Units=m
New Line.763722580 Bus1=node_1036829931.2 Bus2=node_1036829976.2 LineCode=CND_902_1F Length=5.15 Units=m
New Line.244160112 Bus1=node_427110687.2 Bus2=node_427110682.2 LineCode=CND_909_1F Length=21.03 Units=m
New Line.244159667 Bus1=node_427108454.3 Bus2=node_427108455.3 LineCode=CND_909_1F Length=37.48 Units=m
New Line.247587726 Bus1=node_444096146.3 Bus2=node_444096060.3 LineCode=CND_907_1F Length=124.03 Units=m
New Line.247691591 Bus1=node_444412634.1.2.3 Bus2=node_427110207.1.2.3 LineCode=CND_13_3F Length=153.06 Units=m
New Line.245619384 Bus1=node_434338818.2 Bus2=node_434338808.2 LineCode=CND_907_1F Length=72.80 Units=m
New Line.1927907467 Bus1=node_2245303038.1.2.3 Bus2=node_2245302965.1.2.3 LineCode=CND_20_3F Length=48.73 Units=m
New Line.244656226 Bus1=node_429235033.2 Bus2=node_429235034.2 LineCode=CND_902_1F Length=46.18 Units=m
New Line.244159916 Bus1=node_427109329.1 Bus2=node_427109283.1 LineCode=CND_909_1F Length=37.10 Units=m
New Line.247691497 Bus1=node_435115011.1.2.3 Bus2=node_444412153.1.2.3 LineCode=CND_88_3F Length=42.19 Units=m
New Line.349279906 Bus1=100_349258495.2 Bus2=node_427110737.2 LineCode=CND_902_1F Length=14.75 Units=m
New Line.244160145 Bus1=node_427110852.1 Bus2=node_427110782.1 LineCode=CND_911_1F Length=34.35 Units=m
New Line.2164450983 Bus1=node_2473082531.1.2.3 Bus2=node_2473082521.1.2.3 LineCode=CND_11_3F Length=104.07 Units=m
New Line.244159630 Bus1=node_427108091.1.2.3 Bus2=node_427108266.1.2.3 LineCode=CND_50_3F Length=31.02 Units=m
New Line.244656294 Bus1=node_427108454.3 Bus2=node_427108639.3 LineCode=CND_902_1F Length=39.61 Units=m
New Line.627444464 Bus1=node_895373590.1.2.3 Bus2=node_895373601.1.2.3 LineCode=CND_3_3F Length=45.90 Units=m
New Line.835208774 Bus1=node_427792019.1.2.3 Bus2=node_1104468407.1.2.3 LineCode=CND_10_3F Length=1.55 Units=m
New Line.244159848 Bus1=node_427107767.1.2.3 Bus2=node_427109364.1.2.3 LineCode=CND_20_3F Length=15.16 Units=m
New Line.244335031 Bus1=node_427792078.1.2.3 Bus2=node_427792079.1.2.3 LineCode=CND_20_3F Length=62.36 Units=m
New Line.244159566 Bus1=node_427107945.1.2.3 Bus2=node_427107946.1.2.3 LineCode=CND_20_3F Length=34.67 Units=m
New Line.244655886 Bus1=100_2043755170.2 Bus2=node_429233169.2 LineCode=CND_902_1F Length=2.12 Units=m
New Line.1753897231 Bus1=node_2079343911.1.2.3 Bus2=node_2079343904.1.2.3 LineCode=CND_69_3F Length=58.80 Units=m
New Line.1759432154 Bus1=node_2084831504.2 Bus2=node_2084831505.2 LineCode=CND_907_1F Length=28.36 Units=m
New Line.244160037 Bus1=node_427108915.1.2.3 Bus2=node_427110313.1.2.3 LineCode=CND_20_3F Length=37.33 Units=m
New Line.247585873 Bus1=node_444094410.3 Bus2=node_444094411.3 LineCode=CND_907_1F Length=104.30 Units=m
New Line.1730495067 Bus1=node_2056452939.1 Bus2=node_2056452950.1 LineCode=CND_902_1F Length=43.33 Units=m
New Line.245619418 Bus1=node_2176834814.2 Bus2=node_2176834792.2 LineCode=CND_907_1F Length=18.78 Units=m
New Line.245767630 Bus1=node_427111122.2 Bus2=node_434637784.2 LineCode=CND_907_1F Length=99.03 Units=m
New Line.244159915 Bus1=node_427109698.1 Bus2=node_427109699.1 LineCode=CND_909_1F Length=60.68 Units=m
New Line.245770272 Bus1=node_434338188.1.2.3 Bus2=node_435114822.1.2.3 LineCode=CND_30_3F Length=3.80 Units=m
New Line.245767586 Bus1=node_1912702380.2 Bus2=node_434637564.2 LineCode=CND_907_1F Length=70.16 Units=m
New Line.244335022 Bus1=node_427792033.1.2.3 Bus2=node_427792018.1.2.3 LineCode=CND_20_3F Length=35.51 Units=m
New Line.245619197 Bus1=node_434178687.2 Bus2=node_434179007.2 LineCode=CND_907_1F Length=68.94 Units=m
New Line.627444864 Bus1=node_895374294.1.2.3 Bus2=node_895374225.1.2.3 LineCode=CND_3_3F Length=42.28 Units=m
New Line.247586097 Bus1=node_444095521.1 Bus2=node_444094895.1 LineCode=CND_907_1F Length=72.24 Units=m
New Line.2287027371 Bus1=node_2137862632.1 Bus2=node_2518148113.1 LineCode=CND_915_1F Length=46.24 Units=m
New Line.245619297 Bus1=node_434338259.2 Bus2=node_434338389.2 LineCode=CND_907_1F Length=185.87 Units=m
New Line.245619587 Bus1=node_434339769.2 Bus2=node_434339213.2 LineCode=CND_907_1F Length=83.42 Units=m
New Line.1351274342 Bus1=node_1709458627.1.2.3 Bus2=node_1709458620.1.2.3 LineCode=CND_3_3F Length=45.90 Units=m
New Line.2689058314 Bus1=100_930831933.2 Bus2=node_1107852256.2 LineCode=CND_1650_1F Length=5.25 Units=m
New Line.244656247 Bus1=node_429235138.2 Bus2=node_429235139.2 LineCode=CND_902_1F Length=39.97 Units=m
New Line.244159907 Bus1=node_427109074.1.2.3 Bus2=node_427109628.1.2.3 LineCode=CND_20_3F Length=36.21 Units=m
New Line.244656241 Bus1=node_429235064.3 Bus2=node_427110787.3 LineCode=CND_902_1F Length=46.67 Units=m
New Line.247585947 Bus1=node_444094780.3 Bus2=node_444094760.3 LineCode=CND_907_1F Length=247.50 Units=m
New Line.244334767 Bus1=node_427790754.1.2.3 Bus2=node_427790755.1.2.3 LineCode=CND_20_3F Length=44.97 Units=m
New Line.247586047 Bus1=node_427108764.2 Bus2=node_2519063251.2 LineCode=CND_902_1F Length=37.21 Units=m
New Line.244159586 Bus1=node_427108045.1 Bus2=node_427108046.1 LineCode=CND_909_1F Length=52.29 Units=m
New Line.244159641 Bus1=node_427108320.1.2.3 Bus2=node_427107601.1.2.3 LineCode=CND_50_3F Length=24.29 Units=m
New Line.244159976 Bus1=node_427109434.1.2.3 Bus2=node_427109398.1.2.3 LineCode=CND_20_3F Length=36.93 Units=m
New Line.245770255 Bus1=node_435114731.1.2.3 Bus2=node_435114737.1.2.3 LineCode=CND_30_3F Length=355.48 Units=m
New Line.244159968 Bus1=node_427109769.1.2.3 Bus2=node_427109964.1.2.3 LineCode=CND_20_3F Length=40.00 Units=m
New Line.247586029 Bus1=node_444095026.2 Bus2=node_444095160.2 LineCode=CND_902_1F Length=31.48 Units=m
New Line.2539141951 Bus1=node_2734841701.1.2.3 Bus2=node_2734842102.1.2.3 LineCode=CND_429_3F Length=33.89 Units=m
New Line.244160170 Bus1=node_427110603.2 Bus2=node_427110978.2 LineCode=CND_909_1F Length=42.23 Units=m
New Line.244159729 Bus1=node_427108764.2 Bus2=node_427108709.2 LineCode=CND_909_1F Length=23.99 Units=m
New Line.245619554 Bus1=node_434339673.1.2.3 Bus2=node_434339674.1.2.3 LineCode=CND_20_3F Length=43.07 Units=m
New Line.244159669 Bus1=node_427108464.1 Bus2=node_427108420.1 LineCode=CND_909_1F Length=44.36 Units=m
New Line.244159942 Bus1=node_427109833.1.2.3 Bus2=node_427109834.1.2.3 LineCode=CND_50_3F Length=32.03 Units=m
New Line.244160096 Bus1=node_427110607.2 Bus2=node_427110602.2 LineCode=CND_909_1F Length=32.63 Units=m
New Line.244655064 Bus1=node_429078921.1 Bus2=node_429078922.1 LineCode=CND_902_1F Length=78.15 Units=m
New Line.247691525 Bus1=node_435287517.1.2.3 Bus2=node_428921889.1.2.3 LineCode=CND_88_3F Length=23.74 Units=m
New Line.245619386 Bus1=node_434338833.3 Bus2=node_434338834.3 LineCode=CND_907_1F Length=199.37 Units=m
New Line.244160017 Bus1=node_427109949.1.2.3 Bus2=node_427110213.1.2.3 LineCode=CND_20_3F Length=24.50 Units=m
New Line.244656290 Bus1=node_429235329.2 Bus2=node_429235153.2 LineCode=CND_902_1F Length=44.01 Units=m
New Line.245619237 Bus1=node_434179210.2 Bus2=node_434179211.2 LineCode=CND_907_1F Length=97.46 Units=m
New Line.247691500 Bus1=node_444412163.1.2.3 Bus2=node_444412022.1.2.3 LineCode=CND_28_3F Length=53.62 Units=m
New Line.244160108 Bus1=node_427110667.2 Bus2=node_427110668.2 LineCode=CND_909_1F Length=44.81 Units=m
New Line.247586100 Bus1=node_444095535.3 Bus2=node_427110897.3 LineCode=CND_907_1F Length=295.18 Units=m
New Line.244159679 Bus1=node_427108514.1 Bus2=node_427108515.1 LineCode=CND_909_1F Length=30.08 Units=m
New Line.247691038 Bus1=node_427110532.1.2.3 Bus2=node_444293896.1.2.3 LineCode=CND_253_3F Length=5.98 Units=m
New Line.245767594 Bus1=node_434637603.2 Bus2=node_434637568.2 LineCode=CND_907_1F Length=104.78 Units=m
New Line.247586220 Bus1=node_444096145.3 Bus2=node_444096146.3 LineCode=CND_907_1F Length=418.89 Units=m
New Line.247585966 Bus1=node_444094875.2 Bus2=node_444094876.2 LineCode=CND_907_1F Length=167.97 Units=m
New Line.244160144 Bus1=node_427110847.2 Bus2=node_427110848.2 LineCode=CND_909_1F Length=41.54 Units=m
New Line.247585954 Bus1=node_444094796.3 Bus2=node_443981751.3 LineCode=CND_907_1F Length=131.41 Units=m
New Line.244159802 Bus1=node_427109133.1.2.3 Bus2=node_427109134.1.2.3 LineCode=CND_20_3F Length=38.44 Units=m
New Line.247586160 Bus1=node_427791133.2 Bus2=node_444095846.2 LineCode=CND_902_1F Length=21.26 Units=m
New Line.245770502 Bus1=node_429235163.1.2.3 Bus2=node_435287721.1.2.3 LineCode=CND_30_3F Length=348.09 Units=m
New Line.1351274360 Bus1=node_1709458686.1.2.3 Bus2=node_1709458641.1.2.3 LineCode=CND_3_3F Length=52.01 Units=m
New Line.763722548 Bus1=node_1036829916.2 Bus2=node_1036829940.2 LineCode=CND_902_1F Length=62.90 Units=m
New Line.244160029 Bus1=node_427109684.1.2.3 Bus2=node_427109923.1.2.3 LineCode=CND_20_3F Length=32.22 Units=m
New Line.1683617301 Bus1=node_427109259.1 Bus2=node_2008711808.1 LineCode=CND_909_1F Length=12.22 Units=m
New Line.245619385 Bus1=node_434338814.2 Bus2=node_434338829.2 LineCode=CND_907_1F Length=62.75 Units=m
New Line.845089517 Bus1=node_1114323652.2 Bus2=node_1114323694.2 LineCode=CND_907_1F Length=2.47 Units=m
New Line.244334764 Bus1=node_427790739.1.2.3 Bus2=node_427790740.1.2.3 LineCode=CND_20_3F Length=32.63 Units=m
New Line.244656252 Bus1=node_429235163.1 Bus2=node_429235164.1 LineCode=CND_902_1F Length=21.94 Units=m
New Line.245619502 Bus1=node_434339413.2 Bus2=node_434339414.2 LineCode=CND_907_1F Length=41.48 Units=m
New Line.247585727 Bus1=node_1364513706.1.2.3 Bus2=node_443982037.1.2.3 LineCode=CND_11_3F Length=47.82 Units=m
New Line.763722558 Bus1=node_429236081.2 Bus2=node_1036829931.2 LineCode=CND_902_1F Length=18.73 Units=m
New Line.245619532 Bus1=node_434179007.2 Bus2=node_434339473.2 LineCode=CND_907_1F Length=173.19 Units=m
New Line.244160195 Bus1=node_427111093.2 Bus2=node_427111097.2 LineCode=CND_909_1F Length=18.69 Units=m
New Line.245619533 Bus1=node_434179022.2 Bus2=node_434339569.2 LineCode=CND_907_1F Length=100.67 Units=m
New Line.244334839 Bus1=node_427791085.1.2.3 Bus2=node_427791069.1.2.3 LineCode=CND_20_3F Length=36.15 Units=m
New Line.247586164 Bus1=node_444095865.1.2.3 Bus2=node_444095850.1.2.3 LineCode=CND_11_3F Length=40.19 Units=m
New Line.2220397361 Bus1=node_2526005654.2 Bus2=node_2526005627.2 LineCode=CND_907_1F Length=40.10 Units=m
New Line.246092276 Bus1=node_436694899.1.2.3 Bus2=node_436694894.1.2.3 LineCode=CND_51_3F Length=62.03 Units=m
New Line.247586059 Bus1=node_443981942.2 Bus2=node_444095341.2 LineCode=CND_907_1F Length=215.70 Units=m
New Line.245767639 Bus1=node_434637828.2 Bus2=node_427111122.2 LineCode=CND_907_1F Length=94.93 Units=m
New Line.244160189 Bus1=node_427111072.2 Bus2=node_427111067.2 LineCode=CND_909_1F Length=34.69 Units=m
New Line.244655882 Bus1=node_429233309.2 Bus2=node_429233310.2 LineCode=CND_902_1F Length=32.68 Units=m
New Line.807418357 Bus1=node_1078872492.1.2.3 Bus2=node_1078872556.1.2.3 LineCode=CND_3_3F Length=45.83 Units=m
New Line.2600287848 Bus1=node_2710785611.1.2.3 Bus2=node_2710785665.1.2.3 LineCode=CND_3_3F Length=18.97 Units=m
New Line.1408286098 Bus1=100_1408286183.1.2.3 Bus2=node_1705010153.1.2.3 LineCode=CND_3_3F Length=22.44 Units=m
New Line.1816604007 Bus1=node_2141731445.1.2.3 Bus2=node_2139919154.1.2.3 LineCode=CND_20_3F Length=39.74 Units=m
New Line.244160101 Bus1=node_427110623.2 Bus2=node_427110633.2 LineCode=CND_909_1F Length=36.06 Units=m
New Line.245619376 Bus1=node_427109743.2 Bus2=node_2176834791.2 LineCode=CND_907_1F Length=95.41 Units=m
New Line.247585813 Bus1=node_444094106.2 Bus2=node_1043180420.2 LineCode=CND_907_1F Length=251.52 Units=m
New Line.2047813018 Bus1=node_2362949721.1 Bus2=node_2362949878.1 LineCode=CND_902_1F Length=4.42 Units=m
New Line.957184199 Bus1=node_1219423198.2 Bus2=node_1219423183.2 LineCode=CND_911_1F Length=38.66 Units=m
New Line.247691515 Bus1=node_444412158.1.2.3 Bus2=node_427107901.1.2.3 LineCode=CND_88_3F Length=39.44 Units=m
New Line.245770452 Bus1=node_428921989.1.2.3 Bus2=node_435287406.1.2.3 LineCode=CND_30_3F Length=501.03 Units=m
New Line.247586199 Bus1=node_444096036.1 Bus2=node_444096041.1 LineCode=CND_907_1F Length=72.13 Units=m
New Line.245619585 Bus1=node_434339619.1 Bus2=node_434339448.1 LineCode=CND_907_1F Length=102.09 Units=m
New Line.247585734 Bus1=node_443982071.3 Bus2=node_443982072.3 LineCode=CND_907_1F Length=309.75 Units=m
New Line.244655918 Bus1=node_429233489.2 Bus2=node_429233379.2 LineCode=CND_902_1F Length=52.48 Units=m
New Line.244159855 Bus1=node_427109398.1.2.3 Bus2=node_427109399.1.2.3 LineCode=CND_20_3F Length=34.69 Units=m
New Line.627444541 Bus1=node_895373730.1.2.3 Bus2=node_895373741.1.2.3 LineCode=CND_3_3F Length=46.36 Units=m
New Line.244335142 Bus1=node_427792599.1.2.3 Bus2=node_427792634.1.2.3 LineCode=CND_20_3F Length=41.12 Units=m
New Line.2539141962 Bus1=node_2734842102.1.2.3 Bus2=node_2734842112.1.2.3 LineCode=CND_429_3F Length=38.51 Units=m
New Line.627444388 Bus1=node_895373406.1.2.3 Bus2=node_895373465.1.2.3 LineCode=CND_3_3F Length=44.87 Units=m
New Line.245767622 Bus1=node_434637683.2 Bus2=node_434637744.2 LineCode=CND_907_1F Length=300.78 Units=m
New Line.247586066 Bus1=node_443982102.1 Bus2=node_444095376.1 LineCode=CND_907_1F Length=262.62 Units=m
New Line.245770435 Bus1=node_427107732.1.2.3 Bus2=node_434178501.1.2.3 LineCode=CND_20_3F Length=19.66 Units=m
New Line.244335047 Bus1=node_427792158.1.2.3 Bus2=node_427107731.1.2.3 LineCode=CND_20_3F Length=32.48 Units=m
New Line.2600287738 Bus1=node_2710785520.1.2.3 Bus2=node_2710785531.1.2.3 LineCode=CND_3_3F Length=46.59 Units=m
New Line.244160169 Bus1=node_427110972.2 Bus2=node_427110973.2 LineCode=CND_909_1F Length=22.08 Units=m
New Line.247691472 Bus1=node_444412023.1.2.3 Bus2=node_444412012.1.2.3 LineCode=CND_28_3F Length=25.91 Units=m
New Line.245767603 Bus1=node_434637643.2 Bus2=node_428921959.2 LineCode=CND_907_1F Length=331.86 Units=m
New Line.244656227 Bus1=node_427109634.1.2.3 Bus2=node_429235039.1.2.3 LineCode=CND_19_3F Length=29.38 Units=m
New Line.2539141587 Bus1=node_426952334.1.2.3 Bus2=node_2734841412.1.2.3 LineCode=CND_429_3F Length=41.67 Units=m
New Line.247586052 Bus1=node_444095171.1 Bus2=node_444095055.1 LineCode=CND_907_1F Length=113.54 Units=m
New Line.244508596 Bus1=node_428921969.2 Bus2=node_428921929.2 LineCode=CND_902_1F Length=56.94 Units=m
New Line.247586155 Bus1=node_444095336.3 Bus2=node_444095555.3 LineCode=CND_907_1F Length=114.38 Units=m
New Line.247585913 Bus1=node_444094605.3 Bus2=node_429233349.3 LineCode=CND_907_1F Length=248.00 Units=m
New Line.2043755135 Bus1=100_2043755171.2 Bus2=node_429233045.2 LineCode=CND_902_1F Length=55.55 Units=m
New Line.245619375 Bus1=node_434338689.2 Bus2=node_427109743.2 LineCode=CND_907_1F Length=273.90 Units=m
New Line.246092313 Bus1=node_434338249.2 Bus2=node_434338243.2 LineCode=CND_926_1F Length=538.94 Units=m
New Line.244160186 Bus1=node_427110978.2 Bus2=node_427111058.2 LineCode=CND_909_1F Length=24.48 Units=m
New Line.244159913 Bus1=node_427109688.1 Bus2=node_427109689.1 LineCode=CND_909_1F Length=60.72 Units=m
New Line.1724388818 Bus1=100_1724388892.1.2.3 Bus2=node_434637748.1.2.3 LineCode=CND_88_3F Length=6.57 Units=m
New Line.247586210 Bus1=node_444096095.3 Bus2=node_444096096.3 LineCode=CND_907_1F Length=91.79 Units=m
New Line.246092432 Bus1=node_436845956.2 Bus2=node_436845986.2 LineCode=CND_926_1F Length=220.88 Units=m
New Line.245619589 Bus1=node_434339393.2 Bus2=node_434339738.2 LineCode=CND_907_1F Length=52.40 Units=m
New Line.838575420 Bus1=node_1107852354.2 Bus2=node_1107852409.2 LineCode=CND_915_1F Length=39.15 Units=m
New Line.2600287826 Bus1=node_2710785601.1.2.3 Bus2=node_2710785611.1.2.3 LineCode=CND_3_3F Length=9.79 Units=m
New Line.244160194 Bus1=node_427111097.2 Bus2=node_427110917.2 LineCode=CND_909_1F Length=27.68 Units=m
New Line.245619448 Bus1=node_427109589.1 Bus2=node_434339128.1 LineCode=CND_907_1F Length=32.65 Units=m
New Line.244159829 Bus1=node_2008711809.1 Bus2=node_427109269.1 LineCode=CND_909_1F Length=25.98 Units=m
New Line.245767588 Bus1=node_434338579.2 Bus2=node_434637574.2 LineCode=CND_907_1F Length=176.95 Units=m
New Line.244159827 Bus1=node_427109254.1 Bus2=node_427109259.1 LineCode=CND_909_1F Length=52.36 Units=m
New Line.2539141874 Bus1=node_2734842022.1.2.3 Bus2=node_2734842032.1.2.3 LineCode=CND_429_3F Length=40.27 Units=m
New Line.245770251 Bus1=node_435114707.1.2.3 Bus2=node_435114717.1.2.3 LineCode=CND_30_3F Length=4.44 Units=m
New Line.1351274538 Bus1=node_1709458634.1.2.3 Bus2=node_444412405.1.2.3 LineCode=CND_3_3F Length=3.79 Units=m
New Line.627444321 Bus1=node_895373249.1.2.3 Bus2=node_895373368.1.2.3 LineCode=CND_3_3F Length=29.72 Units=m
New Line.244160140 Bus1=node_427110823.2 Bus2=node_427110772.2 LineCode=CND_909_1F Length=25.04 Units=m
New Line.247691476 Bus1=node_434178901.1.2.3 Bus2=node_444412048.1.2.3 LineCode=CND_13_3F Length=594.12 Units=m
New Line.247691578 Bus1=node_427110207.1.2.3 Bus2=node_427109693.1.2.3 LineCode=CND_13_3F Length=106.79 Units=m
...
